6lu7
     RDKit          3D

 23 23  0  0  0  0  0  0  0  0999 V2000
    7.1780   -5.2840   21.7930 C   0  0  0  0  0  0  0  0  0  0  0  0
    7.7150   -4.4770   22.8420 O   0  0  0  0  0  0  0  0  0  0  0  0
    7.8870   -3.1750   22.5020 C   0  0  0  0  0  0  0  0  0  0  0  0
    7.0500   -2.4560   21.9780 O   0  0  0  0  0  0  0  0  0  0  0  0
    9.2580   -2.7150   22.8560 C   0  0  0  0  0  0  0  0  0  0  0  0
   10.0190   -3.3230   23.8660 C   0  0  0  0  0  0  0  0  0  0  0  0
   11.3040   -2.8550   24.1590 C   0  0  0  0  0  0  0  0  0  0  0  0
   11.8310   -1.7830   23.4340 C   0  0  0  0  0  0  0  0  0  0  0  0
   13.4450   -1.1690   23.8250 S   0  0  0  0  0  6  0  0  0  0  0  0
   14.3580   -2.5760   23.8270 N   0  0  0  0  0  0  0  0  0  0  0  0
   13.4520   -0.6880   25.1870 O   0  0  0  0  0  0  0  0  0  0  0  0
   13.9310   -0.3780   22.7190 O   0  0  0  0  0  0  0  0  0  0  0  0
   11.0790   -1.1610   22.4330 C   0  0  0  0  0  0  0  0  0  0  0  0
    9.7960   -1.6330   22.1430 C   0  0  0  0  0  0  0  0  0  0  0  0
    6.6182   -6.1253   22.2275 H   0  0  0  0  0  0  0  0  0  0  0  0
    6.5034   -4.6766   21.1718 H   0  0  0  0  0  0  0  0  0  0  0  0
    7.9989   -5.6717   21.1718 H   0  0  0  0  0  0  0  0  0  0  0  0
    9.6032   -4.1712   24.4296 H   0  0  0  0  0  0  0  0  0  0  0  0
   11.8966   -3.3282   24.9558 H   0  0  0  0  0  0  0  0  0  0  0  0
   15.2540   -2.4080   23.3710 H   0  0  0  0  0  0  0  0  0  0  0  0
   14.4440   -2.9320   24.7790 H   0  0  0  0  0  0  0  0  0  0  0  0
   11.4939   -0.3067   21.8780 H   0  0  0  0  0  0  0  0  0  0  0  0
    9.2037   -1.1528   21.3501 H   0  0  0  0  0  0  0  0  0  0  0  0
  1  2  1  0
  2  3  1  0
  3  4  2  0
  3  5  1  0
  5  6  2  0
  6  7  1  0
  7  8  2  0
  8  9  1  0
  9 10  1  0
  9 11  2  0
  9 12  2  0
  8 13  1  0
 13 14  2  0
 14  5  1  0
  1 15  1  0
  1 16  1  0
  1 17  1  0
  6 18  1  0
  7 19  1  0
 10 20  1  0
 10 21  1  0
 13 22  1  0
 14 23  1  0
M  END